2
V4002 1 0 DC 5
R1004 1 2 1000.0
R1005 2 0 1000.0
.TRAN 0.1 1e-05 BE 1 